   h1 h2 h3
HC 0  0  0
FS 0  0  0
MS 0  0  0
GL 0  0  0
GW 0  0  0
SC 0  0  0



